*SPEF "IEEE 1481-1998"
*DESIGN "IIR"
*DATE "Mon Oct 26 20:15:21 2020"
*VENDOR "Cadence Design Systems, Inc."
*PROGRAM "Innovus"
*VERSION "17.11-s080_1"
*DESIGN_FLOW "COUPLING C" "PIN_CAP NONE" "NAME_SCOPE LOCAL"
*DIVIDER /
*DELIMITER :
*BUS_DELIMITER []
*T_UNIT 1 NS
*C_UNIT 1 PF
*R_UNIT 1 OHM
*L_UNIT 1 HENRY

// MMMC spef file for corner 'my_rc'

*NAME_MAP

*1 VIN
*2 RSTn
*3 CLK
*4 DIN[7]
*5 DIN[6]
*6 DIN[5]
*7 DIN[4]
*8 DIN[3]
*9 DIN[2]
*10 DIN[1]
*11 DIN[0]
*12 A1[7]
*13 A1[6]
*14 A1[5]
*15 A1[4]
*16 A1[3]
*17 A1[2]
*18 A1[1]
*19 A1[0]
*20 B1[7]
*21 B1[6]
*22 B1[5]
*23 B1[4]
*24 B1[3]
*25 B1[2]
*26 B1[1]
*27 B1[0]
*28 B0[7]
*29 B0[6]
*30 B0[5]
*31 B0[4]
*32 B0[3]
*33 B0[2]
*34 B0[1]
*35 B0[0]
*36 DOUT[7]
*37 DOUT[6]
*38 DOUT[5]
*39 DOUT[4]
*40 DOUT[3]
*41 DOUT[2]
*42 DOUT[1]
*43 DOUT[0]
*44 VOUT
*45 FE_DBTN8_VIN
*46 FE_DBTN7_sw_0
*47 FE_DBTN6_sw_1
*48 FE_DBTN5_sw_2
*49 FE_DBTN4_sw_3
*50 FE_DBTN3_sw_4
*51 FE_DBTN2_sw_5
*52 FE_DBTN1_sw_6
*53 FE_DBTN0_sw_7
*54 vout1
*55 n1
*56 n3
*57 n4
*58 n5
*59 n6
*60 n7
*61 n8
*62 n9
*63 n10
*64 n11
*65 n12
*66 n13
*67 n14
*68 n15
*69 n16
*70 n17
*71 n18
*72 n19
*73 n20
*74 n21
*75 n22
*76 n23
*77 n24
*78 n25
*79 n26
*80 n27
*81 n28
*82 n29
*83 n31
*84 n32
*85 n33
*86 n34
*87 n35
*88 n36
*89 n37
*90 n38
*91 n39
*92 n61
*93 n62
*94 n63
*95 n64
*96 n65
*97 n66
*98 n67
*99 n68
*100 n69
*101 y1_temp_9_
*102 y1_temp_8_
*103 y1_temp_15_
*104 y1_temp_14_
*105 y1_temp_13_
*106 y1_temp_12_
*107 y1_temp_11_
*108 y1_temp_10_
*109 ff_temp_15_
*110 ff_temp_14_
*111 ff_temp_13_
*112 ff_temp_12_
*113 ff_temp_11_
*114 fb_temp_15_
*115 fb_temp_14_
*116 fb_temp_13_
*117 fb_temp_12_
*118 n71
*119 n90
*120 n91
*121 n92
*122 n93
*123 n94
*124 n95
*125 n96
*126 n97
*127 n98
*128 n99
*129 n100
*130 n101
*131 n102
*132 n103
*133 n104
*134 n105
*135 n106
*136 n107
*137 n108
*138 n109
*139 n110
*140 n111
*141 n112
*142 n113
*143 n114
*144 n115
*145 mult_156_n236
*146 mult_156_n235
*147 mult_156_n234
*148 mult_156_n233
*149 mult_156_n232
*150 mult_156_n231
*151 mult_156_n230
*152 mult_156_n229
*153 mult_156_n228
*154 mult_156_n227
*155 mult_156_n226
*156 mult_156_n225
*157 mult_156_n224
*158 mult_156_n215
*159 mult_156_n214
*160 mult_156_n213
*161 mult_156_n212
*162 mult_156_n211
*163 mult_156_n210
*164 mult_156_n209
*165 mult_156_n208
*166 mult_156_n207
*167 mult_156_n206
*168 mult_156_n205
*169 mult_156_n204
*170 mult_156_n203
*171 mult_156_n202
*172 mult_156_n201
*173 mult_156_n200
*174 mult_156_n156
*175 mult_156_n155
*176 mult_156_n154
*177 mult_156_n153
*178 mult_156_n151
*179 mult_156_n150
*180 mult_156_n148
*181 mult_156_n147
*182 mult_156_n146
*183 mult_156_n145
*184 mult_156_n144
*185 mult_156_n143
*186 mult_156_n142
*187 mult_156_n141
*188 mult_156_n139
*189 mult_156_n138
*190 mult_156_n137
*191 mult_156_n136
*192 mult_156_n135
*193 mult_156_n134
*194 mult_156_n133
*195 mult_156_n132
*196 mult_156_n131
*197 mult_156_n130
*198 mult_156_n129
*199 mult_156_n128
*200 mult_156_n127
*201 mult_156_n126
*202 mult_156_n125
*203 mult_156_n124
*204 mult_156_n123
*205 mult_156_n122
*206 mult_156_n121
*207 mult_156_n119
*208 mult_156_n118
*209 mult_156_n117
*210 mult_156_n116
*211 mult_156_n115
*212 mult_156_n114
*213 mult_156_n113
*214 mult_156_n112
*215 mult_156_n111
*216 mult_156_n110
*217 mult_156_n109
*218 mult_156_n108
*219 mult_156_n107
*220 mult_156_n106
*221 mult_156_n105
*222 mult_156_n104
*223 mult_156_n103
*224 mult_156_n102
*225 mult_156_n101
*226 mult_156_n100
*227 mult_156_n99
*228 mult_156_n98
*229 mult_156_n97
*230 mult_156_n96
*231 mult_156_n95
*232 mult_156_n94
*233 mult_156_n93
*234 mult_156_n92
*235 mult_156_n91
*236 mult_156_n90
*237 mult_156_n89
*238 mult_156_n88
*239 mult_156_n87
*240 mult_156_n86
*241 mult_156_n85
*242 mult_156_n84
*243 mult_156_n83
*244 mult_156_n82
*245 mult_156_n81
*246 mult_156_n80
*247 mult_156_n79
*248 mult_156_n78
*249 mult_156_n77
*250 mult_156_n76
*251 mult_156_n75
*252 mult_156_n74
*253 mult_156_n73
*254 mult_156_n72
*255 mult_156_n71
*256 mult_156_n70
*257 mult_156_n69
*258 mult_156_n68
*259 mult_156_n67
*260 mult_156_n66
*261 mult_156_n65
*262 mult_156_n64
*263 mult_156_n63
*264 mult_156_n62
*265 mult_156_n61
*266 mult_156_n60
*267 mult_156_n59
*268 mult_156_n58
*269 mult_156_n57
*270 mult_156_n56
*271 mult_156_n54
*272 mult_156_n53
*273 mult_156_n52
*274 mult_156_n51
*275 mult_156_n50
*276 mult_156_n49
*277 mult_156_n48
*278 mult_156_n47
*279 mult_156_n46
*280 mult_156_n45
*281 mult_156_n44
*282 mult_156_n43
*283 mult_156_n42
*284 mult_156_n41
*285 mult_156_n40
*286 mult_156_n39
*287 mult_156_n38
*288 mult_156_n37
*289 mult_156_n36
*290 mult_156_n35
*291 mult_156_n34
*292 mult_156_n33
*293 mult_156_n32
*294 mult_156_n31
*295 mult_156_n30
*296 mult_156_n29
*297 mult_156_n28
*298 mult_156_n27
*299 mult_156_n26
*300 mult_156_n25
*301 mult_156_n24
*302 mult_156_n23
*303 mult_156_n22
*304 mult_156_n21
*305 mult_156_n20
*306 mult_156_n19
*307 mult_156_n18
*308 mult_156_n17
*309 mult_156_n16
*310 mult_156_n15
*311 mult_156_n4
*312 mult_156_n3
*313 mult_156_n2
*314 mult_156_n1
*315 mult_166_n232
*316 mult_166_n231
*317 mult_166_n230
*318 mult_166_n229
*319 mult_166_n228
*320 mult_166_n227
*321 mult_166_n226
*322 mult_166_n225
*323 mult_166_n224
*324 mult_166_n223
*325 mult_166_n222
*326 mult_166_n221
*327 mult_166_n220
*328 mult_166_n219
*329 mult_166_n218
*330 mult_166_n217
*331 mult_166_n216
*332 mult_166_n215
*333 mult_166_n214
*334 mult_166_n213
*335 mult_166_n212
*336 mult_166_n211
*337 mult_166_n210
*338 mult_166_n209
*339 mult_166_n208
*340 mult_166_n207
*341 mult_166_n206
*342 mult_166_n205
*343 mult_166_n204
*344 mult_166_n203
*345 mult_166_n156
*346 mult_166_n155
*347 mult_166_n154
*348 mult_166_n153
*349 mult_166_n151
*350 mult_166_n150
*351 mult_166_n148
*352 mult_166_n147
*353 mult_166_n146
*354 mult_166_n145
*355 mult_166_n144
*356 mult_166_n143
*357 mult_166_n142
*358 mult_166_n141
*359 mult_166_n139
*360 mult_166_n138
*361 mult_166_n137
*362 mult_166_n136
*363 mult_166_n135
*364 mult_166_n134
*365 mult_166_n133
*366 mult_166_n132
*367 mult_166_n131
*368 mult_166_n130
*369 mult_166_n129
*370 mult_166_n128
*371 mult_166_n127
*372 mult_166_n126
*373 mult_166_n125
*374 mult_166_n124
*375 mult_166_n123
*376 mult_166_n122
*377 mult_166_n121
*378 mult_166_n119
*379 mult_166_n118
*380 mult_166_n117
*381 mult_166_n116
*382 mult_166_n115
*383 mult_166_n114
*384 mult_166_n113
*385 mult_166_n112
*386 mult_166_n111
*387 mult_166_n110
*388 mult_166_n109
*389 mult_166_n108
*390 mult_166_n107
*391 mult_166_n106
*392 mult_166_n105
*393 mult_166_n104
*394 mult_166_n103
*395 mult_166_n102
*396 mult_166_n101
*397 mult_166_n100
*398 mult_166_n99
*399 mult_166_n98
*400 mult_166_n97
*401 mult_166_n96
*402 mult_166_n95
*403 mult_166_n94
*404 mult_166_n93
*405 mult_166_n92
*406 mult_166_n91
*407 mult_166_n90
*408 mult_166_n89
*409 mult_166_n88
*410 mult_166_n87
*411 mult_166_n86
*412 mult_166_n85
*413 mult_166_n84
*414 mult_166_n83
*415 mult_166_n82
*416 mult_166_n81
*417 mult_166_n80
*418 mult_166_n79
*419 mult_166_n78
*420 mult_166_n77
*421 mult_166_n76
*422 mult_166_n75
*423 mult_166_n74
*424 mult_166_n73
*425 mult_166_n72
*426 mult_166_n71
*427 mult_166_n70
*428 mult_166_n69
*429 mult_166_n68
*430 mult_166_n67
*431 mult_166_n66
*432 mult_166_n65
*433 mult_166_n64
*434 mult_166_n63
*435 mult_166_n62
*436 mult_166_n61
*437 mult_166_n60
*438 mult_166_n59
*439 mult_166_n58
*440 mult_166_n57
*441 mult_166_n56
*442 mult_166_n54
*443 mult_166_n53
*444 mult_166_n52
*445 mult_166_n51
*446 mult_166_n50
*447 mult_166_n49
*448 mult_166_n48
*449 mult_166_n47
*450 mult_166_n46
*451 mult_166_n45
*452 mult_166_n44
*453 mult_166_n43
*454 mult_166_n42
*455 mult_166_n41
*456 mult_166_n40
*457 mult_166_n39
*458 mult_166_n38
*459 mult_166_n37
*460 mult_166_n36
*461 mult_166_n35
*462 mult_166_n34
*463 mult_166_n33
*464 mult_166_n32
*465 mult_166_n31
*466 mult_166_n30
*467 mult_166_n29
*468 mult_166_n28
*469 mult_166_n27
*470 mult_166_n26
*471 mult_166_n25
*472 mult_166_n24
*473 mult_166_n23
*474 mult_166_n22
*475 mult_166_n21
*476 mult_166_n20
*477 mult_166_n19
*478 mult_166_n18
*479 mult_166_n17
*480 mult_166_n16
*481 mult_166_n15
*482 mult_166_n8
*483 mult_166_n7
*484 mult_166_n6
*485 mult_166_n5
*486 mult_166_n4
*487 mult_166_n3
*488 mult_166_n2
*489 mult_166_n1
*490 add_170_n2
*491 mult_148_n236
*492 mult_148_n235
*493 mult_148_n234
*494 mult_148_n233
*495 mult_148_n232
*496 mult_148_n231
*497 mult_148_n230
*498 mult_148_n229
*499 mult_148_n228
*500 mult_148_n227
*501 mult_148_n226
*502 mult_148_n225
*503 mult_148_n224
*504 mult_148_n215
*505 mult_148_n214
*506 mult_148_n213
*507 mult_148_n212
*508 mult_148_n211
*509 mult_148_n210
*510 mult_148_n209
*511 mult_148_n208
*512 mult_148_n207
*513 mult_148_n206
*514 mult_148_n205
*515 mult_148_n204
*516 mult_148_n203
*517 mult_148_n202
*518 mult_148_n201
*519 mult_148_n200
*520 mult_148_n156
*521 mult_148_n155
*522 mult_148_n154
*523 mult_148_n153
*524 mult_148_n151
*525 mult_148_n150
*526 mult_148_n148
*527 mult_148_n147
*528 mult_148_n146
*529 mult_148_n145
*530 mult_148_n144
*531 mult_148_n143
*532 mult_148_n142
*533 mult_148_n141
*534 mult_148_n139
*535 mult_148_n138
*536 mult_148_n137
*537 mult_148_n136
*538 mult_148_n135
*539 mult_148_n134
*540 mult_148_n133
*541 mult_148_n132
*542 mult_148_n131
*543 mult_148_n130
*544 mult_148_n129
*545 mult_148_n128
*546 mult_148_n127
*547 mult_148_n126
*548 mult_148_n125
*549 mult_148_n124
*550 mult_148_n123
*551 mult_148_n122
*552 mult_148_n121
*553 mult_148_n119
*554 mult_148_n118
*555 mult_148_n117
*556 mult_148_n116
*557 mult_148_n115
*558 mult_148_n114
*559 mult_148_n113
*560 mult_148_n112
*561 mult_148_n111
*562 mult_148_n110
*563 mult_148_n109
*564 mult_148_n108
*565 mult_148_n107
*566 mult_148_n106
*567 mult_148_n105
*568 mult_148_n104
*569 mult_148_n103
*570 mult_148_n102
*571 mult_148_n101
*572 mult_148_n100
*573 mult_148_n99
*574 mult_148_n98
*575 mult_148_n97
*576 mult_148_n96
*577 mult_148_n95
*578 mult_148_n94
*579 mult_148_n93
*580 mult_148_n92
*581 mult_148_n91
*582 mult_148_n90
*583 mult_148_n89
*584 mult_148_n88
*585 mult_148_n87
*586 mult_148_n86
*587 mult_148_n85
*588 mult_148_n84
*589 mult_148_n83
*590 mult_148_n82
*591 mult_148_n81
*592 mult_148_n80
*593 mult_148_n79
*594 mult_148_n78
*595 mult_148_n77
*596 mult_148_n76
*597 mult_148_n75
*598 mult_148_n74
*599 mult_148_n73
*600 mult_148_n72
*601 mult_148_n71
*602 mult_148_n70
*603 mult_148_n69
*604 mult_148_n68
*605 mult_148_n67
*606 mult_148_n66
*607 mult_148_n65
*608 mult_148_n64
*609 mult_148_n63
*610 mult_148_n62
*611 mult_148_n61
*612 mult_148_n60
*613 mult_148_n59
*614 mult_148_n58
*615 mult_148_n57
*616 mult_148_n56
*617 mult_148_n54
*618 mult_148_n53
*619 mult_148_n52
*620 mult_148_n51
*621 mult_148_n50
*622 mult_148_n49
*623 mult_148_n48
*624 mult_148_n47
*625 mult_148_n46
*626 mult_148_n45
*627 mult_148_n44
*628 mult_148_n43
*629 mult_148_n42
*630 mult_148_n41
*631 mult_148_n40
*632 mult_148_n39
*633 mult_148_n38
*634 mult_148_n37
*635 mult_148_n36
*636 mult_148_n35
*637 mult_148_n34
*638 mult_148_n33
*639 mult_148_n32
*640 mult_148_n31
*641 mult_148_n30
*642 mult_148_n29
*643 mult_148_n28
*644 mult_148_n27
*645 mult_148_n26
*646 mult_148_n25
*647 mult_148_n24
*648 mult_148_n23
*649 mult_148_n22
*650 mult_148_n21
*651 mult_148_n20
*652 mult_148_n19
*653 mult_148_n18
*654 mult_148_n17
*655 mult_148_n16
*656 mult_148_n15
*657 mult_148_n4
*658 mult_148_n3
*659 mult_148_n2
*660 mult_148_n1
*661 x[8]
*662 x[7]
*663 x[6]
*664 x[5]
*665 x[4]
*666 x[3]
*667 x[2]
*668 x[1]
*669 x[0]
*670 a1_s[6]
*671 a1_s[5]
*672 a1_s[4]
*673 a1_s[3]
*674 a1_s[2]
*675 a1_s[1]
*676 a1_s[0]
*677 b1_s[6]
*678 b1_s[5]
*679 b1_s[4]
*680 b1_s[3]
*681 b1_s[2]
*682 b1_s[1]
*683 b1_s[0]
*684 b0_s[6]
*685 b0_s[5]
*686 b0_s[4]
*687 b0_s[3]
*688 b0_s[2]
*689 b0_s[1]
*690 b0_s[0]
*691 yout[7]
*692 yout[6]
*693 yout[5]
*694 yout[4]
*695 yout[3]
*696 yout[2]
*697 yout[1]
*698 yout[0]
*699 sw[8]
*700 sw[7]
*701 sw[6]
*702 sw[5]
*703 sw[4]
*704 sw[3]
*705 sw[2]
*706 sw[1]
*707 sw[0]
*708 w[8]
*709 w[7]
*710 w[6]
*711 w[5]
*712 w[4]
*713 w[3]
*714 w[2]
*715 w[1]
*716 w[0]
*717 fb[4]
*718 fb[3]
*719 fb[2]
*720 fb[1]
*721 fb[0]
*722 add_163_carry[8]
*723 add_163_carry[7]
*724 add_163_carry[6]
*725 add_163_carry[5]
*726 add_163_carry[4]
*727 add_163_carry[3]
*728 add_163_carry[2]
*729 add_163_carry[1]
*730 sub_150_carry[3]
*731 sub_150_carry[2]
*732 add_170_carry[7]
*733 add_170_carry[6]
*734 add_170_carry[5]
*735 add_170_carry[4]
*736 add_170_carry[3]
*737 add_170_carry[2]
*738 FE_DBTC8_VIN
*739 FE_DBTC7_sw_0
*740 FE_DBTC6_sw_1
*741 FE_DBTC5_sw_2
*742 FE_DBTC4_sw_3
*743 FE_DBTC3_sw_4
*744 FE_DBTC2_sw_5
*745 FE_DBTC1_sw_6
*746 FE_DBTC0_sw_7
*747 vout1_reg
*748 VOUT_reg
*749 x_reg_8_
*750 x_reg_7_
*751 x_reg_6_
*752 x_reg_5_
*753 x_reg_4_
*754 x_reg_3_
*755 x_reg_2_
*756 x_reg_1_
*757 x_reg_0_
*758 a1_s_reg_6_
*759 a1_s_reg_5_
*760 a1_s_reg_4_
*761 a1_s_reg_3_
*762 a1_s_reg_2_
*763 a1_s_reg_1_
*764 a1_s_reg_0_
*765 b1_s_reg_6_
*766 b1_s_reg_5_
*767 b1_s_reg_4_
*768 b1_s_reg_3_
*769 b1_s_reg_2_
*770 b1_s_reg_1_
*771 b1_s_reg_0_
*772 b0_s_reg_6_
*773 b0_s_reg_5_
*774 b0_s_reg_4_
*775 b0_s_reg_3_
*776 b0_s_reg_2_
*777 b0_s_reg_1_
*778 b0_s_reg_0_
*779 DOUT_reg_7_
*780 DOUT_reg_6_
*781 DOUT_reg_5_
*782 DOUT_reg_4_
*783 DOUT_reg_3_
*784 DOUT_reg_2_
*785 DOUT_reg_1_
*786 DOUT_reg_0_
*787 sw_reg_8_
*788 sw_reg_7_
*789 sw_reg_6_
*790 sw_reg_5_
*791 sw_reg_4_
*792 sw_reg_3_
*793 sw_reg_2_
*794 sw_reg_1_
*795 sw_reg_0_
*796 add_163_U1_1
*797 add_163_U1_2
*798 add_163_U1_3
*799 add_163_U1_4
*800 add_163_U1_5
*801 add_163_U1_6
*802 add_163_U1_7
*803 add_163_U1_8
*804 U64
*805 U65
*806 U66
*807 U70
*808 U71
*809 U72
*810 U73
*811 U74
*812 U75
*813 U76
*814 U77
*815 U78
*816 U79
*817 U80
*818 U81
*819 U82
*820 U83
*821 U84
*822 U85
*823 U86
*824 U87
*825 U88
*826 U89
*827 U90
*828 U92
*829 U93
*830 U94
*831 U95
*832 U96
*833 U97
*834 U98
*835 U99
*836 U100
*837 U101
*838 U102
*839 U103
*840 U104
*841 U105
*842 U107
*843 U108
*844 U109
*845 U110
*846 U111
*847 U112
*848 U113
*849 U114
*850 U115
*851 U116
*852 U117
*853 U118
*854 U119
*855 U120
*856 U121
*857 U122
*858 U123
*859 U124
*860 U125
*861 U126
*862 U127
*863 U128
*864 U129
*865 U130
*866 U131
*867 U132
*868 U133
*869 U147
*870 U148
*871 U149
*872 U150
*873 U151
*874 U152
*875 U153
*876 mult_156_U234
*877 mult_156_U233
*878 mult_156_U232
*879 mult_156_U231
*880 mult_156_U230
*881 mult_156_U229
*882 mult_156_U228
*883 mult_156_U227
*884 mult_156_U226
*885 mult_156_U225
*886 mult_156_U224
*887 mult_156_U223
*888 mult_156_U222
*889 mult_156_U221
*890 mult_156_U220
*891 mult_156_U219
*892 mult_156_U218
*893 mult_156_U217
*894 mult_156_U216
*895 mult_156_U215
*896 mult_156_U214
*897 mult_156_U213
*898 mult_156_U212
*899 mult_156_U211
*900 mult_156_U210
*901 mult_156_U209
*902 mult_156_U208
*903 mult_156_U207
*904 mult_156_U206
*905 mult_156_U205
*906 mult_156_U204
*907 mult_156_U203
*908 mult_156_U202
*909 mult_156_U201
*910 mult_156_U200
*911 mult_156_U199
*912 mult_156_U198
*913 mult_156_U197
*914 mult_156_U196
*915 mult_156_U195
*916 mult_156_U194
*917 mult_156_U193
*918 mult_156_U192
*919 mult_156_U191
*920 mult_156_U190
*921 mult_156_U189
*922 mult_156_U188
*923 mult_156_U187
*924 mult_156_U186
*925 mult_156_U185
*926 mult_156_U184
*927 mult_156_U183
*928 mult_156_U182
*929 mult_156_U181
*930 mult_156_U180
*931 mult_156_U179
*932 mult_156_U178
*933 mult_156_U177
*934 mult_156_U176
*935 mult_156_U175
*936 mult_156_U174
*937 mult_156_U173
*938 mult_156_U172
*939 mult_156_U171
*940 mult_156_U170
*941 mult_156_U169
*942 mult_156_U168
*943 mult_156_U167
*944 mult_156_U166
*945 mult_156_U165
*946 mult_156_U164
*947 mult_156_U163
*948 mult_156_U155
*949 mult_156_U153
*950 mult_156_U152
*951 mult_156_U151
*952 mult_156_U150
*953 mult_156_U149
*954 mult_156_U148
*955 mult_156_U147
*956 mult_156_U146
*957 mult_156_U145
*958 mult_156_U144
*959 mult_156_U143
*960 mult_156_U142
*961 mult_156_U141
*962 mult_156_U140
*963 mult_156_U139
*964 mult_156_U138
*965 mult_156_U57
*966 mult_156_U56
*967 mult_156_U55
*968 mult_156_U54
*969 mult_156_U53
*970 mult_156_U52
*971 mult_156_U51
*972 mult_156_U50
*973 mult_156_U49
*974 mult_156_U48
*975 mult_156_U45
*976 mult_156_U44
*977 mult_156_U43
*978 mult_156_U42
*979 mult_156_U41
*980 mult_156_U40
*981 mult_156_U39
*982 mult_156_U38
*983 mult_156_U37
*984 mult_156_U35
*985 mult_156_U34
*986 mult_156_U33
*987 mult_156_U32
*988 mult_156_U31
*989 mult_156_U30
*990 mult_156_U29
*991 mult_156_U28
*992 mult_156_U27
*993 mult_156_U26
*994 mult_156_U25
*995 mult_156_U24
*996 mult_156_U23
*997 mult_156_U22
*998 mult_156_U21
*999 mult_156_U20
*1000 mult_156_U19
*1001 mult_156_U18
*1002 mult_156_U17
*1003 mult_156_U16
*1004 mult_156_U5
*1005 mult_156_U4
*1006 mult_156_U3
*1007 mult_156_U2
*1008 mult_166_U228
*1009 mult_166_U227
*1010 mult_166_U226
*1011 mult_166_U225
*1012 mult_166_U224
*1013 mult_166_U223
*1014 mult_166_U222
*1015 mult_166_U221
*1016 mult_166_U220
*1017 mult_166_U219
*1018 mult_166_U218
*1019 mult_166_U217
*1020 mult_166_U216
*1021 mult_166_U215
*1022 mult_166_U214
*1023 mult_166_U213
*1024 mult_166_U212
*1025 mult_166_U211
*1026 mult_166_U210
*1027 mult_166_U209
*1028 mult_166_U208
*1029 mult_166_U207
*1030 mult_166_U206
*1031 mult_166_U205
*1032 mult_166_U204
*1033 mult_166_U203
*1034 mult_166_U202
*1035 mult_166_U201
*1036 mult_166_U200
*1037 mult_166_U199
*1038 mult_166_U198
*1039 mult_166_U197
*1040 mult_166_U196
*1041 mult_166_U195
*1042 mult_166_U194
*1043 mult_166_U193
*1044 mult_166_U192
*1045 mult_166_U191
*1046 mult_166_U190
*1047 mult_166_U189
*1048 mult_166_U188
*1049 mult_166_U187
*1050 mult_166_U186
*1051 mult_166_U185
*1052 mult_166_U184
*1053 mult_166_U183
*1054 mult_166_U182
*1055 mult_166_U181
*1056 mult_166_U180
*1057 mult_166_U179
*1058 mult_166_U178
*1059 mult_166_U177
*1060 mult_166_U176
*1061 mult_166_U175
*1062 mult_166_U174
*1063 mult_166_U173
*1064 mult_166_U172
*1065 mult_166_U171
*1066 mult_166_U170
*1067 mult_166_U169
*1068 mult_166_U168
*1069 mult_166_U167
*1070 mult_166_U166
*1071 mult_166_U165
*1072 mult_166_U164
*1073 mult_166_U163
*1074 mult_166_U162
*1075 mult_166_U161
*1076 mult_166_U160
*1077 mult_166_U159
*1078 mult_166_U158
*1079 mult_166_U157
*1080 mult_166_U156
*1081 mult_166_U155
*1082 mult_166_U154
*1083 mult_166_U153
*1084 mult_166_U152
*1085 mult_166_U151
*1086 mult_166_U150
*1087 mult_166_U149
*1088 mult_166_U148
*1089 mult_166_U147
*1090 mult_166_U146
*1091 mult_166_U145
*1092 mult_166_U144
*1093 mult_166_U143
*1094 mult_166_U142
*1095 mult_166_U141
*1096 mult_166_U140
*1097 mult_166_U139
*1098 mult_166_U138
*1099 mult_166_U57
*1100 mult_166_U56
*1101 mult_166_U55
*1102 mult_166_U54
*1103 mult_166_U53
*1104 mult_166_U52
*1105 mult_166_U51
*1106 mult_166_U50
*1107 mult_166_U49
*1108 mult_166_U48
*1109 mult_166_U45
*1110 mult_166_U44
*1111 mult_166_U43
*1112 mult_166_U42
*1113 mult_166_U41
*1114 mult_166_U40
*1115 mult_166_U39
*1116 mult_166_U38
*1117 mult_166_U37
*1118 mult_166_U35
*1119 mult_166_U34
*1120 mult_166_U33
*1121 mult_166_U32
*1122 mult_166_U31
*1123 mult_166_U30
*1124 mult_166_U29
*1125 mult_166_U28
*1126 mult_166_U27
*1127 mult_166_U26
*1128 mult_166_U25
*1129 mult_166_U24
*1130 mult_166_U23
*1131 mult_166_U22
*1132 mult_166_U21
*1133 mult_166_U20
*1134 mult_166_U19
*1135 mult_166_U18
*1136 mult_166_U17
*1137 mult_166_U16
*1138 mult_166_U8
*1139 mult_166_U7
*1140 mult_166_U6
*1141 mult_166_U5
*1142 mult_166_U4
*1143 mult_166_U3
*1144 mult_166_U2
*1145 add_170_U2
*1146 add_170_U1
*1147 add_170_U1_1
*1148 add_170_U1_2
*1149 add_170_U1_3
*1150 add_170_U1_4
*1151 add_170_U1_5
*1152 add_170_U1_6
*1153 add_170_U1_7
*1154 mult_148_U234
*1155 mult_148_U233
*1156 mult_148_U232
*1157 mult_148_U231
*1158 mult_148_U230
*1159 mult_148_U229
*1160 mult_148_U228
*1161 mult_148_U227
*1162 mult_148_U226
*1163 mult_148_U225
*1164 mult_148_U224
*1165 mult_148_U223
*1166 mult_148_U222
*1167 mult_148_U221
*1168 mult_148_U220
*1169 mult_148_U219
*1170 mult_148_U218
*1171 mult_148_U217
*1172 mult_148_U216
*1173 mult_148_U215
*1174 mult_148_U214
*1175 mult_148_U213
*1176 mult_148_U212
*1177 mult_148_U211
*1178 mult_148_U210
*1179 mult_148_U209
*1180 mult_148_U208
*1181 mult_148_U207
*1182 mult_148_U206
*1183 mult_148_U205
*1184 mult_148_U204
*1185 mult_148_U203
*1186 mult_148_U202
*1187 mult_148_U201
*1188 mult_148_U200
*1189 mult_148_U199
*1190 mult_148_U198
*1191 mult_148_U197
*1192 mult_148_U196
*1193 mult_148_U195
*1194 mult_148_U194
*1195 mult_148_U193
*1196 mult_148_U192
*1197 mult_148_U191
*1198 mult_148_U190
*1199 mult_148_U189
*1200 mult_148_U188
*1201 mult_148_U187
*1202 mult_148_U186
*1203 mult_148_U185
*1204 mult_148_U184
*1205 mult_148_U183
*1206 mult_148_U182
*1207 mult_148_U181
*1208 mult_148_U180
*1209 mult_148_U179
*1210 mult_148_U178
*1211 mult_148_U177
*1212 mult_148_U176
*1213 mult_148_U175
*1214 mult_148_U174
*1215 mult_148_U173
*1216 mult_148_U172
*1217 mult_148_U171
*1218 mult_148_U170
*1219 mult_148_U169
*1220 mult_148_U168
*1221 mult_148_U167
*1222 mult_148_U166
*1223 mult_148_U165
*1224 mult_148_U164
*1225 mult_148_U163
*1226 mult_148_U155
*1227 mult_148_U153
*1228 mult_148_U152
*1229 mult_148_U151
*1230 mult_148_U150
*1231 mult_148_U149
*1232 mult_148_U148
*1233 mult_148_U147
*1234 mult_148_U146
*1235 mult_148_U145
*1236 mult_148_U144
*1237 mult_148_U143
*1238 mult_148_U142
*1239 mult_148_U141
*1240 mult_148_U140
*1241 mult_148_U139
*1242 mult_148_U138
*1243 mult_148_U57
*1244 mult_148_U56
*1245 mult_148_U55
*1246 mult_148_U54
*1247 mult_148_U53
*1248 mult_148_U52
*1249 mult_148_U51
*1250 mult_148_U50
*1251 mult_148_U49
*1252 mult_148_U48
*1253 mult_148_U45
*1254 mult_148_U44
*1255 mult_148_U43
*1256 mult_148_U42
*1257 mult_148_U41
*1258 mult_148_U40
*1259 mult_148_U39
*1260 mult_148_U38
*1261 mult_148_U37
*1262 mult_148_U35
*1263 mult_148_U34
*1264 mult_148_U33
*1265 mult_148_U32
*1266 mult_148_U31
*1267 mult_148_U30
*1268 mult_148_U29
*1269 mult_148_U28
*1270 mult_148_U27
*1271 mult_148_U26
*1272 mult_148_U25
*1273 mult_148_U24
*1274 mult_148_U23
*1275 mult_148_U22
*1276 mult_148_U21
*1277 mult_148_U20
*1278 mult_148_U19
*1279 mult_148_U18
*1280 mult_148_U17
*1281 mult_148_U16
*1282 mult_148_U5
*1283 mult_148_U4
*1284 mult_148_U3
*1285 mult_148_U2


*PORTS

*1 I *C 0 0
*2 I *C 0 0
*3 I *C 0 0
*4 I *C 0 0
*5 I *C 0 0
*6 I *C 0 0
*7 I *C 0 0
*8 I *C 0 0
*9 I *C 0 0
*10 I *C 0 0
*11 I *C 0 0
*12 I *C 0 0
*13 I *C 0 0
*14 I *C 0 0
*15 I *C 0 0
*16 I *C 0 0
*17 I *C 0 0
*18 I *C 0 0
*19 I *C 0 0
*20 I *C 0 0
*21 I *C 0 0
*22 I *C 0 0
*23 I *C 0 0
*24 I *C 0 0
*25 I *C 0 0
*26 I *C 0 0
*27 I *C 0 0
*28 I *C 0 0
*29 I *C 0 0
*30 I *C 0 0
*31 I *C 0 0
*32 I *C 0 0
*33 I *C 0 0
*34 I *C 0 0
*35 I *C 0 0
*36 O *C 0 0
*37 O *C 0 0
*38 O *C 0 0
*39 O *C 0 0
*40 O *C 0 0
*41 O *C 0 0
*42 O *C 0 0
*43 O *C 0 0
*44 O *C 0 0


*D_NET *1 0.0127911

*CONN
*P *1 I *C 0 0 *L 0
*I *868:A2 I *C 8.355 18.06 *L 0.00169 *D AOI22_X1
*I *866:A2 I *C 9.695 20.86 *L 0.00169 *D AOI22_X1
*I *864:A2 I *C 5.885 23.66 *L 0.00169 *D AOI22_X1
*I *862:A2 I *C 41.045 28.42 *L 0.00169 *D AOI22_X1
*I *860:A2 I *C 38.945 32.06 *L 0.00169 *D AOI22_X1
*I *858:A2 I *C 21.665 29.26 *L 0.00169 *D AOI22_X1
*I *856:A1 I *C 39.515 8.82 *L 0.00169 *D AOI22_X1
*I *854:A2 I *C 8.735 15.26 *L 0.00169 *D AOI22_X1
*I *852:A2 I *C 19.755 22.82 *L 0.00169 *D AOI22_X1
*I *850:A2 I *C 32.865 32.06 *L 0.00169 *D AOI22_X1
*I *848:A2 I *C 22.415 29.26 *L 0.00169 *D AOI22_X1
*I *846:A2 I *C 18.995 18.06 *L 0.00169 *D AOI22_X1
*I *844:A2 I *C 23.745 32.06 *L 0.00169 *D AOI22_X1
*I *841:A2 I *C 22.17 8.715 *L 0.00166 *D NAND2_X1
*I *840:B1 I *C 21.475 9.765 *L 0.00166 *D OAI21_X1
*I *839:A2 I *C 20.65 6.965 *L 0.00166 *D NAND2_X1
*I *838:B1 I *C 22.415 6.965 *L 0.00166 *D OAI21_X1
*I *837:A2 I *C 18.94 6.965 *L 0.00166 *D NAND2_X1
*I *836:B1 I *C 19.765 8.715 *L 0.00166 *D OAI21_X1
*I *835:A2 I *C 16.85 5.915 *L 0.00166 *D NAND2_X1
*I *834:B1 I *C 16.345 6.965 *L 0.00166 *D OAI21_X1
*I *833:A2 I *C 14 6.965 *L 0.00166 *D NAND2_X1
*I *832:B1 I *C 13.305 8.715 *L 0.00166 *D OAI21_X1
*I *831:A2 I *C 8.3 8.715 *L 0.00166 *D NAND2_X1
*I *830:B1 I *C 10.255 9.765 *L 0.00166 *D OAI21_X1
*I *829:A2 I *C 8.3 9.765 *L 0.00166 *D NAND2_X1
*I *828:B1 I *C 7.035 11.515 *L 0.00166 *D OAI21_X1
*I *827:A1 I *C 26.415 6.965 *L 0.00167 *D OAI22_X1
*I *826:A1 I *C 23.745 9.765 *L 0.00167 *D OAI22_X1
*I *825:A2 I *C 38.945 31.22 *L 0.00169 *D AOI22_X1
*I *823:A2 I *C 27.165 32.06 *L 0.00169 *D AOI22_X1
*I *821:A2 I *C 29.635 11.62 *L 0.00169 *D AOI22_X1
*I *819:A2 I *C 27.925 8.82 *L 0.00169 *D AOI22_X1
*I *817:A2 I *C 31.915 9.66 *L 0.00169 *D AOI22_X1
*I *815:A2 I *C 31.915 6.86 *L 0.00169 *D AOI22_X1
*I *813:A2 I *C 34.195 9.66 *L 0.00169 *D AOI22_X1
*I *811:A2 I *C 38.185 11.62 *L 0.00169 *D AOI22_X1
*I *747:D I *C 8.77 7 *L 0.00113 *D DFFR_X1
*I *738:A I *C 11.15 8.715 *L 0.0017 *D INV_X1

*CAP
1 *868:A2 0.00012741
2 *866:A2 1.662e-05
3 *864:A2 1.662e-05
4 *862:A2 1.662e-05
5 *860:A2 1.662e-05
6 *858:A2 3.358e-05
7 *856:A1 1.662e-05
8 *854:A2 1.492e-05
9 *852:A2 1.434e-05
10 *850:A2 3.737e-05
11 *848:A2 2.527e-05
12 *846:A2 4.912e-05
13 *844:A2 1.662e-05
14 *841:A2 1.662e-05
15 *840:B1 1.662e-05
16 *839:A2 1.662e-05
17 *838:B1 1.662e-05
18 *837:A2 1.662e-05
19 *836:B1 1.662e-05
20 *835:A2 1.662e-05
21 *834:B1 1.662e-05
22 *833:A2 1.662e-05
23 *832:B1 1.662e-05
24 *831:A2 8.564e-05
25 *830:B1 1.662e-05
26 *829:A2 1.662e-05
27 *828:B1 1.662e-05
28 *827:A1 1.662e-05
29 *826:A1 1.662e-05
30 *825:A2 1.662e-05
31 *823:A2 1.662e-05
32 *821:A2 1.819e-05
33 *819:A2 2.868e-05
34 *817:A2 2.806e-05
35 *815:A2 2.615e-05
36 *813:A2 6.016e-05
37 *811:A2 1.662e-05
38 *747:D 1.662e-05
39 *738:A 7.4e-06
40 *1:40 6.97e-05
41 *1:41 0.00016291
42 *1:42 5.795e-05
43 *1:43 7.011e-05
44 *1:44 9.659e-05
45 *1:45 0.00011601
46 *1:46 3.77e-05
47 *1:47 6.962e-05
48 *1:48 0.00012741
49 *1:49 8.722e-05
50 *1:50 8.732e-05
51 *1:51 2.323e-05
52 *1:52 8.947e-05
53 *1:53 4.995e-05
54 *1:54 1.399e-05
55 *1:55 5.527e-05
56 *1:56 7.092e-05
57 *1:57 5.418e-05
58 *1:58 6.634e-05
59 *1:59 0.00012083
60 *1:60 0.00013693
61 *1:61 1.399e-05
62 *1:62 1.399e-05
63 *1:63 8.971e-05
64 *1:64 7.162e-05
65 *1:65 5.17e-05
66 *1:66 5.17e-05
67 *1:67 2.65e-05
68 *1:68 5.378e-05
69 *1:69 5.606e-05
70 *1:70 2.09e-05
71 *1:71 1.862e-05
72 *1:72 3.446e-05
73 *1:73 3.637e-05
74 *1:74 4.568e-05
75 *1:75 4.272e-05
76 *1:76 2.227e-05
77 *1:77 6.164e-05
78 *1:78 6.164e-05
79 *1:79 2.773e-05
80 *1:80 2.773e-05
81 *1:81 3.829e-05
82 *1:82 3.829e-05
83 *1:83 5.378e-05
84 *1:84 0.00010898
85 *1:85 2.175e-05
86 *1:86 7.746e-05
87 *1:87 0.00010511
88 *1:88 7.485e-05
89 *1:89 3.741e-05
90 *1:90 3.741e-05
91 *1:91 1.336e-05
92 *1:92 1.336e-05
93 *1:93 2.678e-05
94 *1:94 2.906e-05
95 *1:95 3.089e-05
96 *1:96 2.861e-05
97 *1:97 6.22e-05
98 *1:98 6.22e-05
99 *1:99 5.207e-05
100 *1:100 5.205e-05
101 *1:101 3.561e-05
102 *1:102 4.549e-05
103 *1:103 5.728e-05
104 *1:104 8.796e-05
105 *1:105 5.927e-05
106 *1:106 0.00010169
107 *1:107 3.352e-05
108 *1:108 3.352e-05
109 *1:109 0.00010901
110 *1:110 0.00010901
111 *1:111 2.526e-05
112 *1:112 2.756e-05
113 *1:113 8.589e-05
114 *1:114 2.041e-05
115 *1:115 2.175e-05
116 *1:116 2.207e-05
117 *1:117 8.941e-05
118 *1:118 8.941e-05
119 *1:119 0.00033464
120 *1:120 0.00013509
121 *1:121 0.00014914
122 *1:122 0.00010926
123 *1:123 0.00024671
124 *1:124 2.917e-05
125 *1:125 2.885e-05
126 *1:126 0.00011301
127 *1:127 0.00011301
128 *1:128 1.236e-05
129 *1:129 7.403e-05
130 *1:130 7.403e-05
131 *1:131 3.883e-05
132 *1:132 3.618e-05
133 *1:133 9.053e-05
134 *1:134 9.053e-05
135 *1:135 1.236e-05
136 *1:136 3.511e-05
137 *1:137 0.0003044
138 *1:138 9.259e-05
139 *1:139 0.0004187
140 *1:140 0.00044361
141 *1:141 6.103e-05
142 *1:142 6.103e-05
143 *1:143 2.479e-05
144 *1:144 2.249e-05
145 *1:145 4.773e-05
146 *1:146 1.246e-05
147 *1:147 1.246e-05
148 *1:148 3.603e-05
149 *1:149 1.399e-05
150 *1:150 1.714e-05
151 *1:151 2.452e-05
152 *1:152 6.351e-05
153 *1:153 8.079e-05
154 *1:154 0.00011297
155 *1:155 0.00019056
156 *1:156 9.231e-05
157 *1:157 9.231e-05
158 *1:158 1.571e-05
159 *1:159 3.898e-05
160 *1:160 1.694e-05
161 *1:161 9.194e-05
162 *1:162 8.564e-05
163 *1:163 5.61e-05
164 *1:164 5.61e-05
165 *1:165 6.755e-05
166 *1:166 2.442e-05
167 *1:167 1.226e-05
168 *1:168 1.52e-05
169 *1:169 3.218e-05
170 *1:170 1.52e-05
171 *1:171 4.056e-05
172 *1:172 3.32e-05
173 *1:173 3.092e-05
174 *1:174 3.924e-05
175 *1:175 1.72e-05
176 *1:176 3.699e-05
177 *1:177 9.258e-05
178 *1:178 0.00010474
179 *1:179 0.00017272
180 *1:180 0.0001191
181 *1:181 6.29e-05
182 *1:182 6.28e-05
183 *1:183 6.691e-05
184 *1:184 9.204e-05
185 *1:185 2.142e-05
186 *1:186 6.119e-05
187 *1:187 8.947e-05
188 *1:188 3.331e-05
189 *1:189 3.331e-05
190 *1:190 7.276e-05
191 *1:191 1.52e-05
192 *1:192 5.185e-05
193 *1:193 1.495e-05
194 *1:194 1.495e-05
195 *1:195 1.99e-05
196 *1:196 1.958e-05
197 *1:197 1.52e-05
198 *1:198 4.665e-05
199 *1:199 6.143e-05
200 *1:200 4.346e-05
201 *1:201 3.65e-05
202 *1:202 1.474e-05
203 *1:203 6.755e-05
204 *1:204 1.236e-05
205 *1:205 1.236e-05
206 *1:206 4.081e-05
207 *1:207 2.265e-05
208 *1:208 5.036e-05
209 *1:209 5.036e-05
210 *1:210 2.438e-05
211 *1:211 2.438e-05
212 *1:212 2.519e-05
213 *1:213 2.254e-05
214 *1:214 5.567e-05
215 *1:215 5.567e-05
216 *1:216 0.00024519
217 *1:217 0.00024749
218 *1:218 2.6e-05
219 *1:219 1.52e-05
220 *1:220 1.52e-05
221 *1:221 1.302e-05
222 *1:222 1.302e-05
223 *1:223 2.523e-05
224 *1:224 2.917e-05
225 *1:225 5.415e-05
226 *1:226 4.665e-05

*RES
1 *1:80 *862:A2 5
2 *1:80 *1:79 2
3 *1:133 *1:79 5
4 *1:134 *1:133 8.14286
5 *1:144 *1:134 5
6 *1:144 *1:143 1.5
7 *1:78 *1:143 0.678571
8 *1:78 *1:77 5
9 *1:77 *1:76 0.678571
10 *1:76 *1:75 1.5
11 *1:75 *825:A2 5
12 *1:75 *1:136 3.5
13 *1:136 *860:A2 5
14 *1:136 *1:135 0.5
15 *1:224 *1:135 5
16 *1:223 *1:224 1.35714
17 *1:74 *850:A2 4.12571
18 *1:156 *1:223 0.25
19 *1:222 *1:74 5
20 *1:157 *1:156 6.10714
21 *1:222 *1:221 0.5
22 *1:157 *1:155 0.25
23 *1:220 *823:A2 5
24 *1:139 *1:221 5
25 *1:139 *1:155 16.9643
26 *1:219 *844:A2 5
27 *1:140 *1:220 5
28 *1:140 *1:139 17.6429