*SPEF "IEEE 1481-1998"
*DESIGN "IIRlookahead"
*DATE "Sat Nov  7 19:26:18 2020"
*VENDOR "Cadence Design Systems, Inc."
*PROGRAM "Innovus"
*VERSION "17.11-s080_1"
*DESIGN_FLOW "COUPLING C" "PIN_CAP NONE" "NAME_SCOPE LOCAL"
*DIVIDER /
*DELIMITER :
*BUS_DELIMITER []
*T_UNIT 1 NS
*C_UNIT 1 PF
*R_UNIT 1 OHM
*L_UNIT 1 HENRY

// MMMC spef file for corner 'my_rc'

*NAME_MAP

*1 VIN
*2 RSTn
*3 CLK
*4 DIN[7]
*5 DIN[6]
*6 DIN[5]
*7 DIN[4]
*8 DIN[3]
*9 DIN[2]
*10 DIN[1]
*11 DIN[0]
*12 A1[6]
*13 A1[5]
*14 A1[4]
*15 A1[3]
*16 A1[2]
*17 A1[1]
*18 A1[0]
*19 B1[6]
*20 B1[5]
*21 B1[4]
*22 B1[3]
*23 B1[2]
*24 B1[1]
*25 B1[0]
*26 B0[6]
*27 B0[5]
*28 B0[4]
*29 B0[3]
*30 B0[2]
*31 B0[1]
*32 B0[0]
*33 B1A1[4]
*34 B1A1[3]
*35 B1A1[2]
*36 B1A1[1]
*37 B1A1[0]
*38 B0A1[4]
*39 B0A1[3]
*40 B0A1[2]
*41 B0A1[1]
*42 B0A1[0]
*43 A1_2[2]
*44 A1_2[1]
*45 A1_2[0]
*46 B0A1_2[8]
*47 B0A1_2[7]
*48 B0A1_2[6]
*49 B0A1_2[5]
*50 B0A1_2[4]
*51 B0A1_2[3]
*52 B0A1_2[2]
*53 B0A1_2[1]
*54 B0A1_2[0]
*55 DOUT[7]
*56 DOUT[6]
*57 DOUT[5]
*58 DOUT[4]
*59 DOUT[3]
*60 DOUT[2]
*61 DOUT[1]
*62 DOUT[0]
*63 VOUT
*64 FE_OFN4_RSTn
*65 FE_OFN3_RSTn
*66 FE_OFN2_VIN
*67 FE_OFN1_VIN
*68 FE_OFN0_VIN
*69 FE_DBTN10_s6_4
*70 FE_DBTN9_s6_5
*71 FE_DBTN8_s6_6
*72 FE_DBTN7_s0_0
*73 FE_DBTN6_s0_1
*74 FE_DBTN5_s0_3
*75 FE_DBTN4_s0_4
*76 FE_DBTN3_s0_5
*77 FE_DBTN2_s0_6
*78 FE_DBTN1_x_3
*79 FE_DBTN0_x_4
*80 vout1
*81 vout2
*82 s8_temp_9_
*83 s8_temp_8_
*84 s8_temp_7_
*85 s8_temp_12_
*86 s8_temp_11_
*87 s8_temp_10_
*88 s7_temp_16_
*89 s7_temp_15_
*90 s7_temp_14_
*91 s5_temp_9_
*92 s5_temp_8_
*93 s5_temp_7_
*94 s5_temp_10_
*95 s1_temp_9_
*96 s1_temp_8_
*97 s1_temp_7_
*98 s1_temp_14_
*99 s1_temp_13_
*100 s1_temp_12_
*101 s1_temp_11_
*102 s1_temp_10_
*103 s11_temp_9_
*104 s11_temp_8_
*105 s11_temp_7_
*106 s11_temp_12_
*107 s11_temp_11_
*108 s11_temp_10_
*109 s10_temp_9_
*110 s10_temp_8_
*111 s10_temp_7_
*112 s10_temp_14_
*113 s10_temp_13_
*114 s10_temp_12_
*115 s10_temp_11_
*116 s10_temp_10_
*117 n7
*118 n8
*119 n12
*120 n14
*121 n15
*122 n17
*123 n18
*124 n19
*125 n20
*126 n22
*127 n23
*128 n24
*129 n25
*130 n26
*131 n28
*132 n29
*133 n30
*134 n31
*135 n32
*136 n34
*137 n35
*138 n36
*139 n37
*140 n38
*141 n39
*142 n40
*143 n41
*144 n43
*145 n44
*146 n45
*147 n46
*148 n47
*149 n48
*150 n53
*151 n54
*152 n55
*153 n56
*154 n57
*155 n58
*156 n59
*157 n60
*158 n62
*159 n63
*160 n64
*161 n65
*162 n66
*163 n67
*164 n68
*165 n69
*166 n70
*167 n71
*168 n72
*169 n73
*170 n74
*171 n75
*172 n76
*173 n77
*174 n78
*175 regDIN_n24
*176 regDIN_n23
*177 regDIN_n22
*178 regDIN_n21
*179 regDIN_n20
*180 regDIN_n19
*181 regDIN_n18
*182 regDIN_n17
*183 regDIN_n16
*184 regDIN_n15
*185 regDIN_n14
*186 regDIN_n13
*187 regDIN_n12
*188 regDIN_n11
*189 regDIN_n10
*190 regDIN_n9
*191 regDIN_n8
*192 regDIN_n7
*193 regDIN_n6
*194 regDIN_n5
*195 regDIN_n4
*196 regDIN_n3
*197 regDIN_n2
*198 regDIN_n1
*199 regA1_n21
*200 regA1_n20
*201 regA1_n19
*202 regA1_n18
*203 regA1_n17
*204 regA1_n16
*205 regA1_n15
*206 regA1_n14
*207 regA1_n13
*208 regA1_n12
*209 regA1_n11
*210 regA1_n10
*211 regA1_n9
*212 regA1_n8
*213 regA1_n7
*214 regA1_n6
*215 regA1_n5
*216 regA1_n4
*217 regA1_n3
*218 regA1_n2
*219 regA1_n1
*220 regB1_n44
*221 regB1_n43
*222 regB1_n42
*223 regB1_n41
*224 regB1_n40
*225 regB1_n39
*226 regB1_n38
*227 regB1_n37
*228 regB1_n36
*229 regB1_n35
*230 regB1_n34
*231 regB1_n33
*232 regB1_n32
*233 regB1_n31
*234 regB1_n30
*235 regB1_n29
*236 regB1_n28
*237 regB1_n27
*238 regB1_n26
*239 regB1_n25
*240 regB1_n24
*241 regB0_n44
*242 regB0_n43
*243 regB0_n42
*244 regB0_n41
*245 regB0_n40
*246 regB0_n39
*247 regB0_n38
*248 regB0_n37
*249 regB0_n36
*250 regB0_n35
*251 regB0_n34
*252 regB0_n33
*253 regB0_n32
*254 regB0_n31
*255 regB0_n30
*256 regB0_n29
*257 regB0_n28
*258 regB0_n27
*259 regB0_n26
*260 regB0_n25
*261 regB0_n24
*262 regB1A1_n15
*263 regB1A1_n14
*264 regB1A1_n13
*265 regB1A1_n12
*266 regB1A1_n11
*267 regB1A1_n10
*268 regB1A1_n9
*269 regB1A1_n8
*270 regB1A1_n7
*271 regB1A1_n6
*272 regB1A1_n5
*273 regB1A1_n4
*274 regB1A1_n3
*275 regB1A1_n2
*276 regB1A1_n1
*277 regB0A1_n31
*278 regB0A1_n30
*279 regB0A1_n29
*280 regB0A1_n28
*281 regB0A1_n27
*282 regB0A1_n26
*283 regB0A1_n25
*284 regB0A1_n24
*285 regB0A1_n23
*286 regB0A1_n22
*287 regB0A1_n21
*288 regB0A1_n20
*289 regB0A1_n19
*290 regB0A1_n18
*291 regB0A1_n17
*292 regA1_2_n9
*293 regA1_2_n8
*294 regA1_2_n7
*295 regA1_2_n6
*296 regA1_2_n5
*297 regA1_2_n4
*298 regA1_2_n3
*299 regA1_2_n2
*300 regA1_2_n1
*301 regB0A1_2_n27
*302 regB0A1_2_n26
*303 regB0A1_2_n25
*304 regB0A1_2_n24
*305 regB0A1_2_n23
*306 regB0A1_2_n22
*307 regB0A1_2_n21
*308 regB0A1_2_n20
*309 regB0A1_2_n19
*310 regB0A1_2_n13
*311 regB0A1_2_n12
*312 regB0A1_2_n11
*313 regB0A1_2_n10
*314 regB0A1_2_n9
*315 regB0A1_2_n8
*316 regB0A1_2_n7
*317 regB0A1_2_n6
*318 regR0_n51
*319 regR0_n45
*320 regR0_n44
*321 regR0_n43
*322 regR0_n42
*323 regR0_n41
*324 regR0_n40
*325 regR0_n39
*326 regR0_n36
*327 regR0_n30
*328 regR0_n27
*329 regR0_n14
*330 regR1_n42
*331 regR1_n41
*332 regR1_n40
*333 regR1_n39
*334 regR1_n38
*335 regR1_n37
*336 regR1_n36
*337 regR1_n35
*338 regR1_n34
*339 regR1_n26
*340 regR2_n24
*341 regR2_n23
*342 regR2_n12
*343 regR2_n11
*344 regR2_n10
*345 regR2_n6
*346 regR2_n4
*347 regR2_n1
*348 regR2_n25
*349 reg1_PIPEstage1_n47
*350 reg1_PIPEstage1_n46
*351 reg1_PIPEstage1_n44
*352 reg1_PIPEstage1_n43
*353 reg1_PIPEstage1_n42
*354 reg1_PIPEstage1_n41
*355 reg1_PIPEstage1_n40
*356 reg1_PIPEstage1_n39
*357 reg1_PIPEstage1_n38
*358 reg1_PIPEstage1_n37
*359 reg1_PIPEstage1_n36
*360 reg1_PIPEstage1_n35
*361 reg1_PIPEstage1_n34
*362 reg1_PIPEstage1_n31
*363 reg1_PIPEstage1_n30
*364 reg1_PIPEstage1_n28
*365 reg1_PIPEstage1_n27
*366 reg1_PIPEstage1_n26
*367 reg2_PIPEstage1_n41
*368 reg2_PIPEstage1_n40
*369 reg2_PIPEstage1_n39
*370 reg2_PIPEstage1_n38
*371 reg2_PIPEstage1_n37
*372 reg2_PIPEstage1_n36
*373 reg2_PIPEstage1_n35
*374 reg2_PIPEstage1_n34
*375 reg3_PIPEstage1_n40
*376 reg3_PIPEstage1_n39
*377 reg3_PIPEstage1_n38
*378 reg3_PIPEstage1_n37
*379 reg3_PIPEstage1_n36
*380 reg3_PIPEstage1_n35
*381 reg3_PIPEstage1_n34
*382 reg3_PIPEstage1_n33
*383 reg1_PIPEstage2_n4
*384 reg1_PIPEstage2_n18
*385 reg1_PIPEstage2_n12
*386 reg1_PIPEstage2_n11
*387 reg1_PIPEstage2_n10
*388 reg2_PIPEstage2_n46
*389 reg2_PIPEstage2_n40
*390 reg2_PIPEstage2_n39
*391 reg2_PIPEstage2_n38
*392 reg2_PIPEstage2_n37
*393 reg2_PIPEstage2_n36
*394 reg2_PIPEstage2_n35
*395 reg2_PIPEstage2_n34
*396 reg2_PIPEstage2_n33
*397 reg2_PIPEstage2_n30
*398 regDOUT_n40
*399 regDOUT_n39
*400 regDOUT_n38
*401 regDOUT_n37
*402 regDOUT_n36
*403 regDOUT_n35
*404 regDOUT_n34
*405 regDOUT_n33
*406 add_233_n2
*407 add_232_n2
*408 mult_212_n170
*409 mult_212_n169
*410 mult_212_n168
*411 mult_212_n167
*412 mult_212_n166
*413 mult_212_n165
*414 mult_212_n164
*415 mult_212_n163
*416 mult_212_n162
*417 mult_212_n161
*418 mult_212_n159
*419 mult_212_n156
*420 mult_212_n155
*421 mult_212_n151
*422 mult_212_n150
*423 mult_212_n149
*424 mult_212_n148
*425 mult_212_n147
*426 mult_212_n146
*427 mult_212_n145
*428 mult_212_n144
*429 mult_212_n143
*430 mult_212_n142
*431 mult_212_n141
*432 mult_212_n140
*433 mult_212_n139
*434 mult_212_n138
*435 mult_212_n137
*436 mult_212_n136
*437 mult_212_n135
*438 mult_212_n134
*439 mult_212_n133
*440 mult_212_n132
*441 mult_212_n130
*442 mult_212_n92
*443 mult_212_n91
*444 mult_212_n89
*445 mult_212_n88
*446 mult_212_n87
*447 mult_212_n85
*448 mult_212_n84
*449 mult_212_n83
*450 mult_212_n82
*451 mult_212_n81
*452 mult_212_n80
*453 mult_212_n79
*454 mult_212_n77
*455 mult_212_n75
*456 mult_212_n74
*457 mult_212_n73
*458 mult_212_n72
*459 mult_212_n71
*460 mult_212_n70
*461 mult_212_n69
*462 mult_212_n68
*463 mult_212_n67
*464 mult_212_n66
*465 mult_212_n65
*466 mult_212_n64
*467 mult_212_n63
*468 mult_212_n62
*469 mult_212_n61
*470 mult_212_n60
*471 mult_212_n59
*472 mult_212_n58
*473 mult_212_n57
*474 mult_212_n56
*475 mult_212_n55
*476 mult_212_n54
*477 mult_212_n53
*478 mult_212_n52
*479 mult_212_n51
*480 mult_212_n50
*481 mult_212_n49
*482 mult_212_n48
*483 mult_212_n47
*484 mult_212_n46
*485 mult_212_n45
*486 mult_212_n44
*487 mult_212_n43
*488 mult_212_n42
*489 mult_212_n41
*490 mult_212_n40
*491 mult_212_n39
*492 mult_212_n38
*493 mult_212_n37
*494 mult_212_n36
*495 mult_212_n35
*496 mult_212_n34
*497 mult_212_n33
*498 mult_212_n32
*499 mult_212_n31
*500 mult_212_n29
*501 mult_212_n28
*502 mult_212_n27
*503 mult_212_n26
*504 mult_212_n25
*505 mult_212_n24
*506 mult_212_n23
*507 mult_212_n22
*508 mult_212_n21
*509 mult_212_n20
*510 mult_212_n19
*511 mult_212_n18
*512 mult_212_n17
*513 mult_212_n16
*514 mult_212_n15
*515 mult_212_n14
*516 mult_212_n13
*517 mult_212_n12
*518 mult_212_n5
*519 mult_212_n4
*520 mult_212_n3
*521 mult_206_n126
*522 mult_206_n125
*523 mult_206_n124
*524 mult_206_n123
*525 mult_206_n122
*526 mult_206_n121
*527 mult_206_n120
*528 mult_206_n119
*529 mult_206_n118
*530 mult_206_n113
*531 mult_206_n111
*532 mult_206_n110
*533 mult_206_n109
*534 mult_206_n108
*535 mult_206_n107
*536 mult_206_n106
*537 mult_206_n105
*538 mult_206_n104
*539 mult_206_n103
*540 mult_206_n102
*541 mult_206_n101
*542 mult_206_n100
*543 mult_206_n99
*544 mult_206_n98
*545 mult_206_n97
*546 mult_206_n96
*547 mult_206_n95
*548 mult_206_n94
*549 mult_206_n93
*550 mult_206_n92
*551 mult_206_n91
*552 mult_206_n90
*553 mult_206_n89
*554 mult_206_n88
*555 mult_206_n87
*556 mult_206_n86
*557 mult_206_n85
*558 mult_206_n84
*559 mult_206_n81
*560 mult_206_n80
*561 mult_206_n45
*562 mult_206_n44
*563 mult_206_n43
*564 mult_206_n42
*565 mult_206_n41
*566 mult_206_n38
*567 mult_206_n37
*568 mult_206_n36
*569 mult_206_n35
*570 mult_206_n34
*571 mult_206_n32
*572 mult_206_n31
*573 mult_206_n30
*574 mult_206_n29
*575 mult_206_n28
*576 mult_206_n27
*577 mult_206_n26
*578 mult_206_n23
*579 mult_206_n22
*580 mult_206_n21
*581 mult_206_n20
*582 mult_206_n19
*583 mult_206_n18
*584 mult_206_n17
*585 mult_206_n16
*586 mult_206_n15
*587 mult_206_n13
*588 mult_206_n12
*589 mult_206_n11
*590 mult_206_n10
*591 mult_206_n3
*592 mult_206_n2
*593 mult_206_n1
*594 mult_203_n274
*595 mult_203_n273
*596 mult_203_n272
*597 mult_203_n271
*598 mult_203_n270
*599 mult_203_n269
*600 mult_203_n268
*601 mult_203_n267
*602 mult_203_n266
*603 mult_203_n265
*604 mult_203_n264
*605 mult_203_n263
*606 mult_203_n262
*607 mult_203_n259
*608 mult_203_n257
*609 mult_203_n255
*610 mult_203_n251
*611 mult_203_n250
*612 mult_203_n249
*613 mult_203_n248
*614 mult_203_n247
*615 mult_203_n246
*616 mult_203_n245
*617 mult_203_n244
*618 mult_203_n243
*619 mult_203_n242
*620 mult_203_n240
*621 mult_203_n239
*622 mult_203_n238
*623 mult_203_n237
*624 mult_203_n235
*625 mult_203_n234
*626 mult_203_n233
*627 mult_203_n232
*628 mult_203_n231
*629 mult_203_n230
*630 mult_203_n229
*631 mult_203_n228
*632 mult_203_n227
*633 mult_203_n225
*634 mult_203_n224
*635 mult_203_n223
*636 mult_203_n222
*637 mult_203_n221
*638 mult_203_n219
*639 mult_203_n218
*640 mult_203_n217
*641 mult_203_n216
*642 mult_203_n215
*643 mult_203_n214
*644 mult_203_n213
*645 mult_203_n212
*646 mult_203_n211
*647 mult_203_n210
*648 mult_203_n208
*649 mult_203_n207
*650 mult_203_n206
*651 mult_203_n205
*652 mult_203_n204
*653 mult_203_n203
*654 mult_203_n202
*655 mult_203_n201
*656 mult_203_n200
*657 mult_203_n199
*658 mult_203_n198
*659 mult_203_n197
*660 mult_203_n196
*661 mult_203_n195
*662 mult_203_n193
*663 mult_203_n190
*664 mult_203_n189
*665 mult_203_n188
*666 mult_203_n183
*667 mult_203_n182
*668 mult_203_n138
*669 mult_203_n137
*670 mult_203_n136
*671 mult_203_n135
*672 mult_203_n133
*673 mult_203_n131
*674 mult_203_n130
*675 mult_203_n129
*676 mult_203_n128
*677 mult_203_n127
*678 mult_203_n126
*679 mult_203_n125
*680 mult_203_n123
*681 mult_203_n122
*682 mult_203_n121
*683 mult_203_n120
*684 mult_203_n119
*685 mult_203_n118
*686 mult_203_n117
*687 mult_203_n116
*688 mult_203_n115
*689 mult_203_n114
*690 mult_203_n113
*691 mult_203_n112
*692 mult_203_n111
*693 mult_203_n110
*694 mult_203_n109
*695 mult_203_n108
*696 mult_203_n107
*697 mult_203_n105
*698 mult_203_n104
*699 mult_203_n103
*700 mult_203_n102
*701 mult_203_n101
*702 mult_203_n100
*703 mult_203_n99
*704 mult_203_n98
*705 mult_203_n97
*706 mult_203_n96
*707 mult_203_n95
*708 mult_203_n94
*709 mult_203_n93
*710 mult_203_n92
*711 mult_203_n91
*712 mult_203_n90
*713 mult_203_n89
*714 mult_203_n88
*715 mult_203_n87
*716 mult_203_n86
*717 mult_203_n85
*718 mult_203_n84
*719 mult_203_n83
*720 mult_203_n82
*721 mult_203_n81
*722 mult_203_n80
*723 mult_203_n79
*724 mult_203_n78
*725 mult_203_n77
*726 mult_203_n76
*727 mult_203_n75
*728 mult_203_n74
*729 mult_203_n73
*730 mult_203_n72
*731 mult_203_n71
*732 mult_203_n70
*733 mult_203_n69
*734 mult_203_n68
*735 mult_203_n67
*736 mult_203_n66
*737 mult_203_n65
*738 mult_203_n64
*739 mult_203_n63
*740 mult_203_n62
*741 mult_203_n61
*742 mult_203_n60
*743 mult_203_n59
*744 mult_203_n58
*745 mult_203_n56
*746 mult_203_n55
*747 mult_203_n53
*748 mult_203_n52
*749 mult_203_n51
*750 mult_203_n50
*751 mult_203_n49
*752 mult_203_n48
*753 mult_203_n47
*754 mult_203_n46
*755 mult_203_n45
*756 mult_203_n44
*757 mult_203_n43
*758 mult_203_n42
*759 mult_203_n41
*760 mult_203_n40
*761 mult_203_n39
*762 mult_203_n38
*763 mult_203_n37
*764 mult_203_n36
*765 mult_203_n35
*766 mult_203_n34
*767 mult_203_n33
*768 mult_203_n32
*769 mult_203_n31
*770 mult_203_n30
*771 mult_203_n29
*772 mult_203_n28
*773 mult_203_n27
*774 mult_203_n26
*775 mult_203_n25
*776 mult_203_n24
*777 mult_203_n23
*778 mult_203_n22
*779 mult_203_n21
*780 mult_203_n20
*781 mult_203_n19
*782 mult_203_n18
*783 mult_203_n17
*784 mult_203_n16
*785 mult_203_n15
*786 mult_203_n14
*787 mult_203_n7
*788 mult_203_n6
*789 mult_203_n5
*790 mult_203_n3
*791 mult_203_n2
*792 add_226_n37
*793 add_226_n36
*794 add_226_n35
*795 add_226_n34
*796 add_226_n33
*797 add_226_n32
*798 add_226_n31
*799 add_226_n30
*800 add_226_n29
*801 add_226_n28
*802 add_226_n27
*803 add_226_n26
*804 add_226_n25
*805 add_226_n24
*806 add_226_n22
*807 add_226_n21
*808 add_226_n20
*809 add_226_n19
*810 add_226_n15
*811 add_226_n13
*812 add_226_n12
*813 add_226_n11
*814 add_226_n10
*815 add_226_n9
*816 add_226_n8
*817 add_226_n3
*818 add_226_n2
*819 mult_215_n261
*820 mult_215_n260
*821 mult_215_n259
*822 mult_215_n258
*823 mult_215_n257
*824 mult_215_n256
*825 mult_215_n253
*826 mult_215_n250
*827 mult_215_n249
*828 mult_215_n248
*829 mult_215_n247
*830 mult_215_n246
*831 mult_215_n245
*832 mult_215_n244
*833 mult_215_n243
*834 mult_215_n242
*835 mult_215_n241
*836 mult_215_n240
*837 mult_215_n239
*838 mult_215_n238
*839 mult_215_n237
*840 mult_215_n236
*841 mult_215_n235
*842 mult_215_n234
*843 mult_215_n233
*844 mult_215_n232
*845 mult_215_n231
*846 mult_215_n230
*847 mult_215_n229
*848 mult_215_n228
*849 mult_215_n227
*850 mult_215_n226
*851 mult_215_n225
*852 mult_215_n224
*853 mult_215_n222
*854 mult_215_n221
*855 mult_215_n220
*856 mult_215_n219
*857 mult_215_n218
*858 mult_215_n217
*859 mult_215_n216
*860 mult_215_n215
*861 mult_215_n214
*862 mult_215_n213
*863 mult_215_n211
*864 mult_215_n210
*865 mult_215_n209
*866 mult_215_n208
*867 mult_215_n207
*868 mult_215_n203
*869 mult_215_n201
*870 mult_215_n200
*871 mult_215_n199
*872 mult_215_n198
*873 mult_215_n197
*874 mult_215_n191
*875 mult_215_n190
*876 mult_215_n189
*877 mult_215_n188
*878 mult_215_n186
*879 mult_215_n138
*880 mult_215_n137
*881 mult_215_n136
*882 mult_215_n135
*883 mult_215_n133
*884 mult_215_n131
*885 mult_215_n130
*886 mult_215_n129
*887 mult_215_n128
*888 mult_215_n127
*889 mult_215_n126
*890 mult_215_n125
*891 mult_215_n123
*892 mult_215_n122
*893 mult_215_n121
*894 mult_215_n120
*895 mult_215_n119
*896 mult_215_n118
*897 mult_215_n117
*898 mult_215_n116
*899 mult_215_n115
*900 mult_215_n114
*901 mult_215_n113
*902 mult_215_n112
*903 mult_215_n111
*904 mult_215_n110
*905 mult_215_n109
*906 mult_215_n108
*907 mult_215_n107
*908 mult_215_n105
*909 mult_215_n104
*910 mult_215_n103
*911 mult_215_n102
*912 mult_215_n101
*913 mult_215_n100
*914 mult_215_n99
*915 mult_215_n98
*916 mult_215_n97
*917 mult_215_n96
*918 mult_215_n95
*919 mult_215_n94
*920 mult_215_n93
*921 mult_215_n92
*922 mult_215_n91
*923 mult_215_n90
*924 mult_215_n89
*925 mult_215_n88
*926 mult_215_n87
*927 mult_215_n86
*928 mult_215_n85
*929 mult_215_n84
*930 mult_215_n83
*931 mult_215_n82
*932 mult_215_n81
*933 mult_215_n80
*934 mult_215_n79
*935 mult_215_n78
*936 mult_215_n77
*937 mult_215_n76
*938 mult_215_n75
*939 mult_215_n74
*940 mult_215_n73
*941 mult_215_n72
*942 mult_215_n71
*943 mult_215_n70
*944 mult_215_n69
*945 mult_215_n68
*946 mult_215_n67
*947 mult_215_n66
*948 mult_215_n65
*949 mult_215_n64
*950 mult_215_n63
*951 mult_215_n62
*952 mult_215_n61
*953 mult_215_n60
*954 mult_215_n59
*955 mult_215_n58
*956 mult_215_n57
*957 mult_215_n56
*958 mult_215_n55
*959 mult_215_n53
*960 mult_215_n52
*961 mult_215_n51
*962 mult_215_n50
*963 mult_215_n49
*964 mult_215_n48
*965 mult_215_n47
*966 mult_215_n46
*967 mult_215_n45
*968 mult_215_n44
*969 mult_215_n43
*970 mult_215_n42
*971 mult_215_n41
*972 mult_215_n40
*973 mult_215_n39
*974 mult_215_n38
*975 mult_215_n37
*976 mult_215_n36
*977 mult_215_n35
*978 mult_215_n34
*979 mult_215_n33
*980 mult_215_n32
*981 mult_215_n31
*982 mult_215_n30
*983 mult_215_n29
*984 mult_215_n28
*985 mult_215_n27
*986 mult_215_n26
*987 mult_215_n25
*988 mult_215_n24
*989 mult_215_n23
*990 mult_215_n22
*991 mult_215_n21
*992 mult_215_n20
*993 mult_215_n19
*994 mult_215_n18
*995 mult_215_n17
*996 mult_215_n16
*997 mult_215_n15
*998 mult_215_n14
*999 mult_215_n7
*1000 mult_215_n6
*1001 mult_215_n5
*1002 mult_215_n4
*1003 mult_215_n3
*1004 mult_215_n2
*1005 mult_221_n241
*1006 mult_221_n240
*1007 mult_221_n239
*1008 mult_221_n238
*1009 mult_221_n237
*1010 mult_221_n236
*1011 mult_221_n235
*1012 mult_221_n227
*1013 mult_221_n226
*1014 mult_221_n225
*1015 mult_221_n224
*1016 mult_221_n223
*1017 mult_221_n222
*1018 mult_221_n221
*1019 mult_221_n220
*1020 mult_221_n219
*1021 mult_221_n218
*1022 mult_221_n217
*1023 mult_221_n216
*1024 mult_221_n215
*1025 mult_221_n214
*1026 mult_221_n213
*1027 mult_221_n212
*1028 mult_221_n211
*1029 mult_221_n210
*1030 mult_221_n209
*1031 mult_221_n208
*1032 mult_221_n207
*1033 mult_221_n206
*1034 mult_221_n205
*1035 mult_221_n204
*1036 mult_221_n203
*1037 mult_221_n202
*1038 mult_221_n201
*1039 mult_221_n200
*1040 mult_221_n199
*1041 mult_221_n198
*1042 mult_221_n196
*1043 mult_221_n195
*1044 mult_221_n194
*1045 mult_221_n193
*1046 mult_221_n192
*1047 mult_221_n191
*1048 mult_221_n190
*1049 mult_221_n189
*1050 mult_221_n186
*1051 mult_221_n185
*1052 mult_221_n184
*1053 mult_221_n183
*1054 mult_221_n182
*1055 mult_221_n138
*1056 mult_221_n137
*1057 mult_221_n136
*1058 mult_221_n135
*1059 mult_221_n133
*1060 mult_221_n131
*1061 mult_221_n130
*1062 mult_221_n129
*1063 mult_221_n128
*1064 mult_221_n127
*1065 mult_221_n126
*1066 mult_221_n125
*1067 mult_221_n123
*1068 mult_221_n122
*1069 mult_221_n121
*1070 mult_221_n120
*1071 mult_221_n119
*1072 mult_221_n118
*1073 mult_221_n117
*1074 mult_221_n116
*1075 mult_221_n115
*1076 mult_221_n114
*1077 mult_221_n113
*1078 mult_221_n112
*1079 mult_221_n111
*1080 mult_221_n110
*1081 mult_221_n109
*1082 mult_221_n108
*1083 mult_221_n107
*1084 mult_221_n105
*1085 mult_221_n104
*1086 mult_221_n103
*1087 mult_221_n102
*1088 mult_221_n101
*1089 mult_221_n100
*1090 mult_221_n99
*1091 mult_221_n98
*1092 mult_221_n97
*1093 mult_221_n96
*1094 mult_221_n95
*1095 mult_221_n94
*1096 mult_221_n93
*1097 mult_221_n92
*1098 mult_221_n91
*1099 mult_221_n90
*1100 mult_221_n89
*1101 mult_221_n88
*1102 mult_221_n87
*1103 mult_221_n86
*1104 mult_221_n85
*1105 mult_221_n84
*1106 mult_221_n83
*1107 mult_221_n82
*1108 mult_221_n81
*1109 mult_221_n80
*1110 mult_221_n79
*1111 mult_221_n78
*1112 mult_221_n77
*1113 mult_221_n76
*1114 mult_221_n75
*1115 mult_221_n74
*1116 mult_221_n73
*1117 mult_221_n72
*1118 mult_221_n71
*1119 mult_221_n70
*1120 mult_221_n69
*1121 mult_221_n68
*1122 mult_221_n67
*1123 mult_221_n66
*1124 mult_221_n65
*1125 mult_221_n64
*1126 mult_221_n63
*1127 mult_221_n62
*1128 mult_221_n61
*1129 mult_221_n60
*1130 mult_221_n59
*1131 mult_221_n58
*1132 mult_221_n57
*1133 mult_221_n56
*1134 mult_221_n55
*1135 mult_221_n53
*1136 mult_221_n52
*1137 mult_221_n51
*1138 mult_221_n50
*1139 mult_221_n49
*1140 mult_221_n48
*1141 mult_221_n47
*1142 mult_221_n46
*1143 mult_221_n45
*1144 mult_221_n44
*1145 mult_221_n43
*1146 mult_221_n42
*1147 mult_221_n41
*1148 mult_221_n40
*1149 mult_221_n39
*1150 mult_221_n38
*1151 mult_221_n37
*1152 mult_221_n36
*1153 mult_221_n35
*1154 mult_221_n34
*1155 mult_221_n33
*1156 mult_221_n32
*1157 mult_221_n31
*1158 mult_221_n30
*1159 mult_221_n29
*1160 mult_221_n28
*1161 mult_221_n27
*1162 mult_221_n26
*1163 mult_221_n25
*1164 mult_221_n24
*1165 mult_221_n23
*1166 mult_221_n22
*1167 mult_221_n21
*1168 mult_221_n20
*1169 mult_221_n19
*1170 mult_221_n18
*1171 mult_221_n17
*1172 mult_221_n16
*1173 mult_221_n15
*1174 mult_221_n14
*1175 mult_221_n7
*1176 mult_221_n6
*1177 mult_221_n5
*1178 mult_221_n4
*1179 mult_221_n3
*1180 mult_221_n2
*1181 mult_218_n197
*1182 mult_218_n196
*1183 mult_218_n195
*1184 mult_218_n194
*1185 mult_218_n193
*1186 mult_218_n192
*1187 mult_218_n185
*1188 mult_218_n184
*1189 mult_218_n183
*1190 mult_218_n182
*1191 mult_218_n181
*1192 mult_218_n180
*1193 mult_218_n179
*1194 mult_218_n178
*1195 mult_218_n177
*1196 mult_218_n176
*1197 mult_218_n175
*1198 mult_218_n174
*1199 mult_218_n173
*1200 mult_218_n172
*1201 mult_218_n171
*1202 mult_218_n170
*1203 mult_218_n169
*1204 mult_218_n168
*1205 mult_218_n167
*1206 mult_218_n166
*1207 mult_218_n165
*1208 mult_218_n164
*1209 mult_218_n163
*1210 mult_218_n161
*1211 mult_218_n160
*1212 mult_218_n159
*1213 mult_218_n158
*1214 mult_218_n157
*1215 mult_218_n156
*1216 mult_218_n155
*1217 mult_218_n154
*1218 mult_218_n153
*1219 mult_218_n152
*1220 mult_218_n151
*1221 mult_218_n150
*1222 mult_218_n149
*1223 mult_218_n147
*1224 mult_218_n146
*1225 mult_218_n145
*1226 mult_218_n144
*1227 mult_218_n143
*1228 mult_218_n142
*1229 mult_218_n141
*1230 mult_218_n140
*1231 mult_218_n139
*1232 mult_218_n136
*1233 mult_218_n134
*1234 mult_218_n133
*1235 mult_218_n132
*1236 mult_218_n131
*1237 mult_218_n92
*1238 mult_218_n91
*1239 mult_218_n89
*1240 mult_218_n88
*1241 mult_218_n87
*1242 mult_218_n85
*1243 mult_218_n83
*1244 mult_218_n82
*1245 mult_218_n81
*1246 mult_218_n80
*1247 mult_218_n79
*1248 mult_218_n77
*1249 mult_218_n75
*1250 mult_218_n74
*1251 mult_218_n73
*1252 mult_218_n72
*1253 mult_218_n71
*1254 mult_218_n70
*1255 mult_218_n69
*1256 mult_218_n68
*1257 mult_218_n67
*1258 mult_218_n66
*1259 mult_218_n65
*1260 mult_218_n64
*1261 mult_218_n63
*1262 mult_218_n62
*1263 mult_218_n61
*1264 mult_218_n60
*1265 mult_218_n59
*1266 mult_218_n58
*1267 mult_218_n57
*1268 mult_218_n56
*1269 mult_218_n55
*1270 mult_218_n54
*1271 mult_218_n53
*1272 mult_218_n52
*1273 mult_218_n50
*1274 mult_218_n49
*1275 mult_218_n48
*1276 mult_218_n47
*1277 mult_218_n46
*1278 mult_218_n45
*1279 mult_218_n44
*1280 mult_218_n43
*1281 mult_218_n42
*1282 mult_218_n41
*1283 mult_218_n40
*1284 mult_218_n39
*1285 mult_218_n38
*1286 mult_218_n37
*1287 mult_218_n36
*1288 mult_218_n35
*1289 mult_218_n34
*1290 mult_218_n33
*1291 mult_218_n32
*1292 mult_218_n31
*1293 mult_218_n29
*1294 mult_218_n28
*1295 mult_218_n27
*1296 mult_218_n26
*1297 mult_218_n25
*1298 mult_218_n24
*1299 mult_218_n23
*1300 mult_218_n22
*1301 mult_218_n21
*1302 mult_218_n20
*1303 mult_218_n19
*1304 mult_218_n18
*1305 mult_218_n17
*1306 mult_218_n16
*1307 mult_218_n15
*1308 mult_218_n14
*1309 mult_218_n13
*1310 mult_218_n12
*1311 mult_218_n5
*1312 mult_218_n4
*1313 mult_218_n3
*1314 mult_218_n2
*1315 add_231_n38
*1316 add_231_n36
*1317 add_231_n35
*1318 add_231_n34
*1319 add_231_n33
*1320 add_231_n32
*1321 add_231_n31
*1322 add_231_n30
*1323 add_231_n29
*1324 add_231_n27
*1325 add_231_n26
*1326 add_231_n25
*1327 add_231_n24
*1328 add_231_n23
*1329 add_231_n22
*1330 add_231_n21
*1331 add_231_n20
*1332 add_231_n19
*1333 add_231_n18
*1334 add_231_n17
*1335 add_231_n16
*1336 add_231_n15
*1337 add_231_n14
*1338 add_231_n13
*1339 add_231_n12
*1340 add_231_n11
*1341 add_231_n10
*1342 add_231_n8
*1343 add_231_n7
*1344 mult_209_n342
*1345 mult_209_n340
*1346 mult_209_n339
*1347 mult_209_n338
*1348 mult_209_n337
*1349 mult_209_n336
*1350 mult_209_n335
*1351 mult_209_n334
*1352 mult_209_n333
*1353 mult_209_n332
*1354 mult_209_n331
*1355 mult_209_n330
*1356 mult_209_n329
*1357 mult_209_n328
*1358 mult_209_n327
*1359 mult_209_n326
*1360 mult_209_n325
*1361 mult_209_n324
*1362 mult_209_n323
*1363 mult_209_n319
*1364 mult_209_n317
*1365 mult_209_n316
*1366 mult_209_n315
*1367 mult_209_n314
*1368 mult_209_n313
*1369 mult_209_n312
*1370 mult_209_n311
*1371 mult_209_n310
*1372 mult_209_n309
*1373 mult_209_n307
*1374 mult_209_n306
*1375 mult_209_n305
*1376 mult_209_n303
*1377 mult_209_n302
*1378 mult_209_n301
*1379 mult_209_n300
*1380 mult_209_n299
*1381 mult_209_n298
*1382 mult_209_n297
*1383 mult_209_n296
*1384 mult_209_n292
*1385 mult_209_n291
*1386 mult_209_n290
*1387 mult_209_n289
*1388 mult_209_n288
*1389 mult_209_n287
*1390 mult_209_n286
*1391 mult_209_n285
*1392 mult_209_n284
*1393 mult_209_n283
*1394 mult_209_n282
*1395 mult_209_n281
*1396 mult_209_n280
*1397 mult_209_n278
*1398 mult_209_n276
*1399 mult_209_n275
*1400 mult_209_n274
*1401 mult_209_n273
*1402 mult_209_n272
*1403 mult_209_n271
*1404 mult_209_n270
*1405 mult_209_n269
*1406 mult_209_n267
*1407 mult_209_n265
*1408 mult_209_n263
*1409 mult_209_n262
*1410 mult_209_n256
*1411 mult_209_n253
*1412 mult_209_n250
*1413 mult_209_n249
*1414 mult_209_n248
*1415 mult_209_n246
*1416 mult_209_n225
*1417 mult_209_n208
*1418 mult_209_n205
*1419 mult_209_n204
*1420 mult_209_n203
*1421 mult_209_n202
*1422 mult_209_n200
*1423 mult_209_n199
*1424 mult_209_n188
*1425 mult_209_n187
*1426 mult_209_n186
*1427 mult_209_n185
*1428 mult_209_n184
*1429 mult_209_n183
*1430 mult_209_n182
*1431 mult_209_n181
*1432 mult_209_n180
*1433 mult_209_n179
*1434 mult_209_n178
*1435 mult_209_n177
*1436 mult_209_n176
*1437 mult_209_n175
*1438 mult_209_n174
*1439 mult_209_n173
*1440 mult_209_n172
*1441 mult_209_n171
*1442 mult_209_n170
*1443 mult_209_n169
*1444 mult_209_n168
*1445 mult_209_n167
*1446 mult_209_n166
*1447 mult_209_n165
*1448 mult_209_n164
*1449 mult_209_n163
*1450 mult_209_n162
*1451 mult_209_n161
*1452 mult_209_n160
*1453 mult_209_n159
*1454 mult_209_n158
*1455 mult_209_n157
*1456 mult_209_n156
*1457 mult_209_n155
*1458 mult_209_n154
*1459 mult_209_n153
*1460 mult_209_n152
*1461 mult_209_n151
*1462 mult_209_n150
*1463 mult_209_n149
*1464 mult_209_n148
*1465 mult_209_n147
*1466 mult_209_n146
*1467 mult_209_n145
*1468 mult_209_n144
*1469 mult_209_n143
*1470 mult_209_n142
*1471 mult_209_n141
*1472 mult_209_n140
*1473 mult_209_n139
*1474 mult_209_n138
*1475 mult_209_n137
*1476 mult_209_n136
*1477 mult_209_n135
*1478 mult_209_n134
*1479 mult_209_n133
*1480 mult_209_n132
*1481 mult_209_n131
*1482 mult_209_n130
*1483 mult_209_n129
*1484 mult_209_n128
*1485 mult_209_n127
*1486 mult_209_n126
*1487 mult_209_n125
*1488 mult_209_n124
*1489 mult_209_n123
*1490 mult_209_n122
*1491 mult_209_n121
*1492 mult_209_n120
*1493 mult_209_n119
*1494 mult_209_n118
*1495 mult_209_n117
*1496 mult_209_n116
*1497 mult_209_n115
*1498 mult_209_n114
*1499 mult_209_n113
*1500 mult_209_n112
*1501 mult_209_n111
*1502 mult_209_n110
*1503 mult_209_n109
*1504 mult_209_n107
*1505 mult_209_n105
*1506 mult_209_n104
*1507 mult_209_n102
*1508 mult_209_n101
*1509 mult_209_n98
*1510 mult_209_n97
*1511 mult_209_n96
*1512 mult_209_n95
*1513 mult_209_n94
*1514 mult_209_n93
*1515 mult_209_n92
*1516 mult_209_n91
*1517 mult_209_n90
*1518 mult_209_n89
*1519 mult_209_n88
*1520 mult_209_n87
*1521 mult_209_n86
*1522 mult_209_n85
*1523 mult_209_n84
*1524 mult_209_n83
*1525 mult_209_n82
*1526 mult_209_n81
*1527 mult_209_n80
*1528 mult_209_n79
*1529 mult_209_n78
*1530 mult_209_n77
*1531 mult_209_n76
*1532 mult_209_n75
*1533 mult_209_n74
*1534 mult_209_n73
*1535 mult_209_n72
*1536 mult_209_n71
*1537 mult_209_n70
*1538 mult_209_n69
*1539 mult_209_n68
*1540 mult_209_n67
*1541 mult_209_n66
*1542 mult_209_n65
*1543 mult_209_n64
*1544 mult_209_n63
*1545 mult_209_n62
*1546 mult_209_n61
*1547 mult_209_n60
*1548 mult_209_n59
*1549 mult_209_n58
*1550 mult_209_n57
*1551 mult_209_n56
*1552 mult_209_n55
*1553 mult_209_n54
*1554 mult_209_n53
*1555 mult_209_n52
*1556 mult_209_n51
*1557 mult_209_n50
*1558 mult_209_n43
*1559 mult_209_n42
*1560 mult_209_n41
*1561 mult_209_n40
*1562 mult_209_n39
*1563 mult_209_n38
*1564 mult_209_n37
*1565 mult_209_n36
*1566 mult_209_n31
*1567 mult_209_n30
*1568 mult_209_n29
*1569 mult_209_n28
*1570 mult_209_n23
*1571 mult_209_n22
*1572 mult_209_n21
*1573 mult_209_n20
*1574 mult_209_n15
*1575 mult_209_n14
*1576 mult_209_n13
*1577 mult_209_n12
*1578 mult_209_n7
*1579 mult_209_n6
*1580 mult_209_n5
*1581 mult_209_n4
*1582 mult_209_n3
*1583 x[7]
*1584 x[6]
*1585 x[5]
*1586 x[4]
*1587 x[3]
*1588 x[2]
*1589 x[1]
*1590 x[0]
*1591 a1_s[6]
*1592 a1_s[5]
*1593 a1_s[4]
*1594 a1_s[3]
*1595 a1_s[2]
*1596 a1_s[1]
*1597 a1_s[0]
*1598 b1_s[6]
*1599 b1_s[5]
*1600 b1_s[4]
*1601 b1_s[3]
*1602 b1_s[2]
*1603 b1_s[1]
*1604 b1_s[0]
*1605 b0_s[6]
*1606 b0_s[5]
*1607 b0_s[4]
*1608 b0_s[3]
*1609 b0_s[2]
*1610 b0_s[1]
*1611 b0_s[0]
*1612 b1a1_s[4]
*1613 b1a1_s[3]
*1614 b1a1_s[2]
*1615 b1a1_s[1]
*1616 b1a1_s[0]
*1617 b0a1_s[4]
*1618 b0a1_s[3]
*1619 b0a1_s[2]
*1620 b0a1_s[1]
*1621 b0a1_s[0]
*1622 a1_2_s[2]
*1623 a1_2_s[1]
*1624 a1_2_s[0]
*1625 b0a1_2_s[8]
*1626 b0a1_2_s[7]
*1627 b0a1_2_s[6]
*1628 b0a1_2_s[5]
*1629 b0a1_2_s[4]
*1630 b0a1_2_s[3]
*1631 b0a1_2_s[2]
*1632 b0a1_2_s[1]
*1633 b0a1_2_s[0]
*1634 s0[7]
*1635 s0[6]
*1636 s0[5]
*1637 s0[4]
*1638 s0[3]
*1639 s0[2]
*1640 s0[1]
*1641 s0[0]
*1642 s3[7]
*1643 s3[6]
*1644 s3[5]
*1645 s3[4]
*1646 s3[3]
*1647 s3[2]
*1648 s3[1]
*1649 s3[0]
*1650 s4[7]
*1651 s4[6]
*1652 s4[5]
*1653 s4[4]
*1654 s4[3]
*1655 s4[2]
*1656 s4[1]
*1657 s4[0]
*1658 s6[7]
*1659 s6[6]
*1660 s6[5]
*1661 s6[4]
*1662 s6[3]
*1663 s6[2]
*1664 s6[1]
*1665 s6[0]
*1666 s2[7]
*1667 s2[6]
*1668 s2[5]
*1669 s2[4]
*1670 s2[3]